ArgonneRRAP Irene Tidal Spinup  ! 30 CHARACTER ALPHANUM RUN DESCRIPTION
adc53.dev                 ! 20 CHARACTER ALPANUMERIC RUN IDENTIFICATION
1                         ! NFOVER - NONFATAL ERROR OVERRIDE OPTION (other params are warning levels, etc)
1                         ! NABOUT - ABREVIATED OUTPUT OPTION PARAMETER
900                       ! NSCREEN - UNIT 6 OUTPUT OPTION PARAMETER
568                       ! IHOT - HOT START PARAMETER
2                         ! ICS - COORDINATE SYSTEM SELECTION PARAMETER
111112                    ! IM - MODEL TYPE (0 INDICATES STANDARD DEPTH INTEGRATED MODEL)
1                         ! NOLIBF - BOTTOM FRICTION TERM SELECTION PARAMETER
2                         ! NOLIFA - FINITE AMPLITUDE TERM SELECTION PARAMETER
0                         ! NOLICA - SPATIAL DERIVATIVE PORTION OF CONV. TERM SELECTION PARAMETER
0                         ! NOLICAT - TIME DERIVATIVE PORTION OF CONVECTIVE TERM SELECTION PARAMETER
4                         ! elemental_slope_limiter sea_surface_height_above_geoid
mannings_n_at_sea_floor
primitive_weighting_in_continuity_equation
elemental_slope_limiter
average_horizontal_eddy_viscosity_in_sea_water_wrt_depth
1                         ! NCOR - VARIABLE CORIOLIS IN SPACE OPTION PARAMETER
1                         ! NTIP - TIDAL POTENTIAL OPTION PARAMETER
20                        ! NWS - WIND STRESS AND BAROMETRIC PRESSURE OPTION PARAMETER
1                         ! NRAMP - RAMP FUNCTION OPTION
9.81                      ! G - ACCELERATION DUE TO GRAVITY - DETERMINES UNITS
-3                        ! TAU0 - WEIGHTING FACTOR IN GWCE
1.0                       ! DT - TIME STEP (IN SECONDS)
0.0                       ! STATIM - STARTING TIME (IN DAYS)
0.0                       ! REFTIM - REFERENCE TIME (IN DAYS)
2011 08 11 00  1 .9 1     ! Wind and (if needed) RadStress Time  Increment
69.25                     ! RNDAY - TOTAL LENGTH OF SIMULATION (IN DAYS) cold-start=
10.0 10.0  0.0            ! DRAMP - DURATION OF RAMP FUNCTION (IN DAYS)
0.0 1.0 0.0               ! TIME WEIGHTING FACTORS FOR THE GWCE EQUATION
0.10 0 0 0.01             ! H0 - MINIMUM CUTOFF DEPTH
-79.0 35.0                ! SLAM0,SFEA0 - CENTER OF CPP PROJECTION IN DEGREES LONG/LAT
0.003  1. 10. 0.33333     ! FFACTOR - BOTTOM FRICTION COEFFICIENT
2.0                       ! ESL - LATERAL EDDY VISCOSITY COEFFICIENT; IGNORED IF NWP =1
0.0                       ! CORI - CORIOLIS PARAMETER - IGNORED IF NCOR = 1
 8  ! NTIF - TOTAL NUMBER OF TIDAL POTENTIAL CONSTITUENTS
M2
 0.242334   0.14051890E-03    0.69300   1.0047   98.208
S2
 0.112841   0.14544410E-03    0.69300   1.0000    0.000
N2
 0.046398   0.13787970E-03    0.69300   1.0047  242.126
K2
 0.030704   0.14584232E-03    0.69300   0.9804  207.350
K1
 0.141565   0.72921160E-04    0.73600   1.0005  193.662
O1
 0.100514   0.67597742E-04    0.69500   1.0006  260.466
P1
 0.046843   0.72522944E-04    0.70600   1.0000  175.237
Q1
 0.019256   0.64958540E-04    0.69500   1.0006   44.383
 8  !  NBFR - TOTAL NUMBER OF FORCING FREQUENCIES ON OPEN BOUNDARIES
M2
  0.14051890E-03   1.0047   98.208
S2
  0.14544410E-03   1.0000    0.000
N2
  0.13787970E-03   1.0047  242.126
K2
  0.14584232E-03   0.9804  207.350
K1
  0.72921160E-04   1.0005  193.662
O1
  0.67597742E-04   1.0006  260.466
P1
  0.72522944E-04   1.0000  175.237
Q1
  0.64958540E-04   1.0006   44.383
M2
0.493848 221.927759
0.493848 221.927759
0.499227 222.138100
0.474751 221.200072
0.450927 220.624598
0.423179 219.884098
0.408493 219.441339
0.396233 219.136836
0.373835 218.562011
0.356677 218.154853
0.343618 217.807384
0.332137 217.586646
0.320273 217.441345
0.308280 217.358078
0.296589 217.324497
0.285561 217.363396
0.274567 217.511935
0.254556 218.110051
0.240167 218.834329
0.227617 219.580741
0.213704 220.143072
0.198663 220.471862
0.187044 220.744037
0.175335 221.025673
0.164969 221.229354
0.157131 221.549319
0.148772 222.301407
0.139113 223.122087
0.129000 224.287126
0.119262 225.875434
0.108893 227.787209
0.097771 230.208549
0.086888 233.408059
0.076727 237.912482
0.067523 244.089054
0.059947 252.237151
0.054510 262.572369
0.051442 280.476838
0.054789 299.370328
0.066225 317.647017
0.081065 329.159311
0.096838 336.061887
0.115089 341.121173
0.132981 344.489862
0.148608 346.663958
0.163625 348.312258
0.180939 349.879099
0.197335 351.101123
0.213359 352.098330
0.228532 352.853683
0.242513 353.388736
0.256147 353.800441
0.268978 354.097298
0.281448 354.303003
0.294600 354.402325
0.307071 354.370384
0.318258 354.277565
0.328882 354.100745
0.337595 353.890337
0.345908 353.626317
0.353973 353.298712
0.361374 352.891534
0.369152 352.350543
0.377093 351.776498
0.382602 351.174793
0.389363 350.524683
0.392814 350.159338
0.396327 349.763202
0.399897 349.338172
0.401661 349.110549
0.403452 348.876080
0.405375 348.619230
0.407325 348.354014
0.409286 348.071111
0.411282 347.779637
0.413272 347.478392
0.415233 347.167382
0.417168 346.849395
0.419108 346.505484
0.421067 346.137290
0.422964 345.760033
0.424792 345.378682
0.426571 344.987126
0.427508 344.775359
0.428614 344.520483
0.429676 344.257830
0.430701 343.987166
0.431456 343.845867
0.432139 343.767781
0.433477 343.700558
0.439894 343.792934
0.445506 343.915970
0.457328 345.335706
0.469841 346.728631
0.477621 347.184605
0.480900 347.167993
0.484640 347.136848
0.487682 347.001782
0.490923 346.859846
0.493493 346.676731
0.495367 346.448177
0.496380 346.307457
0.496480 346.122283
0.496586 345.937155
0.496696 345.752130
0.496006 345.557006
0.495014 345.357342
0.494029 345.156897
0.492559 344.918360
0.490294 344.623239
0.488101 344.333277
0.486036 344.056169
0.483466 344.099025
0.483466 344.099025
0.461113 343.098847
0.461113 343.098847
0.461113 343.098847
0.461113 343.098847
0.461113 343.098847
S2
0.179348 251.674362
0.179348 251.674362
0.181959 252.630431
0.171739 250.653992
0.162309 249.235312
0.150964 247.188439
0.144944 245.919228
0.140206 244.816199
0.131687 242.679856
0.125290 241.052220
0.120588 239.653305
0.116563 238.809512
0.112599 238.388243
0.108609 238.228461
0.104568 238.132600
0.100598 238.037914
0.096956 238.213187
0.090663 238.887030
0.086163 239.584657
0.082131 240.302512
0.077462 241.054236
0.072293 241.717547
0.068494 242.092431
0.064760 242.163254
0.061424 241.874672
0.059122 241.938694
0.056738 242.217432
0.053963 242.535884
0.051083 243.307905
0.048393 244.296212
0.045464 245.180587
0.042185 246.217847
0.038883 247.773269
0.035658 249.957875
0.032576 252.724571
0.029689 256.166281
0.027017 260.565426
0.023669 269.057032
0.021093 280.869638
0.019491 298.712009
0.019710 316.173809
0.021389 330.289797
0.024304 342.449026
0.027753 351.213963
0.031098 357.076151
0.034509 1.555089
0.038663 5.741388
0.042773 8.958929
0.046910 11.524321
0.050882 13.512823
0.054568 15.021410
0.058140 16.260850
0.061484 17.271763
0.064693 18.126989
0.068036 18.864731
0.071144 19.414669
0.073907 19.817356
0.076531 20.096140
0.078667 20.236739
0.080684 20.277268
0.082643 20.224819
0.084382 20.049098
0.086132 19.722953
0.087963 19.408675
0.088986 19.102181
0.090358 18.694152
0.091089 18.469643
0.091818 18.199355
0.092546 17.918447
0.092919 17.769362
0.093292 17.616527
0.093695 17.451909
0.094109 17.286413
0.094531 17.107457
0.094953 16.922894
0.095383 16.732305
0.095822 16.534989
0.096256 16.327722
0.096708 16.106693
0.097172 15.870053
0.097634 15.625868
0.098099 15.375668
0.098576 15.105668
0.098834 14.957879
0.099144 14.778422
0.099487 14.575474
0.099864 14.350294
0.100468 14.238624
0.101305 14.184459
0.102547 14.112580
0.106578 13.933703
0.109939 13.874846
0.112578 16.059980
0.115473 18.212588
0.117618 19.462223
0.118705 19.965540
0.119936 20.506842
0.120770 20.750256
0.121661 21.005696
0.122348 21.210481
0.122819 21.364608
0.123083 21.442507
0.123190 21.405365
0.123297 21.368281
0.123404 21.331266
0.123327 21.287504
0.123181 21.241068
0.123035 21.194525
0.122764 21.113153
0.122282 20.972704
0.121814 20.834892
0.121371 20.703353
0.120969 20.798891
0.120969 20.798891
0.116984 20.506746
0.116984 20.506746
0.116984 20.506746
0.116984 20.506746
0.116984 20.506746
N2
0.108062 209.414359
0.108062 209.414359
0.109301 210.025895
0.103284 207.917582
0.097830 206.521142
0.091554 204.847178
0.088256 203.869185
0.085636 203.094044
0.080872 201.598462
0.077219 200.439761
0.074463 199.358241
0.072056 198.669576
0.069666 198.309256
0.067271 198.151022
0.064883 198.038540
0.062579 197.951501
0.060440 198.086276
0.056667 198.650645
0.053902 199.291152
0.051416 200.034534
0.048661 200.885468
0.045725 201.798742
0.043517 202.567260
0.041275 203.289357
0.039174 204.010844
0.037609 205.132934
0.035937 206.606783
0.034073 208.139142
0.032134 209.826859
0.030213 211.662829
0.028085 213.763505
0.025783 216.354948
0.023576 219.562554
0.021483 223.568449
0.019536 228.604378
0.017831 234.777118
0.016439 242.289314
0.015139 255.521499
0.014931 271.268159
0.016322 289.623842
0.018846 302.972469
0.021872 311.661294
0.025533 318.278772
0.029204 322.722261
0.032467 325.548157
0.035644 327.616510
0.039385 329.436265
0.042996 330.735864
0.046568 331.691108
0.049973 332.354849
0.053118 332.794482
0.056169 333.115313
0.059020 333.337597
0.061765 333.496192
0.064636 333.583284
0.067339 333.578283
0.069748 333.546971
0.072067 333.457323
0.073993 333.323461
0.075860 333.136127
0.077711 332.874635
0.079432 332.517630
0.081260 332.011127
0.083062 331.487746
0.084362 330.854845
0.085876 330.177636
0.086643 329.812259
0.087422 329.409570
0.088209 328.972761
0.088598 328.741677
0.088994 328.503078
0.089418 328.240085
0.089844 327.966107
0.090277 327.680866
0.090707 327.383659
0.091139 327.074591
0.091575 326.753945
0.092005 326.421599
0.092435 326.068849
0.092871 325.693006
0.093299 325.306871
0.093719 324.912716
0.094135 324.498824
0.094358 324.273399
0.094624 324.000668
0.094894 323.721784
0.095168 323.436494
0.095348 323.297458
0.095492 323.232689
0.095799 323.236359
0.097396 323.879063
0.098823 324.471730
0.102471 326.893984
0.106425 329.221229
0.108939 330.168902
0.110012 330.333254
0.111253 330.491871
0.112404 330.399090
0.113630 330.302392
0.114793 330.110957
0.115899 329.819508
0.116541 329.630088
0.117021 329.287253
0.117505 328.947176
0.117993 328.609943
0.118210 328.158665
0.118331 327.664168
0.118460 327.170762
0.118299 326.552406
0.117624 325.733698
0.116990 324.927661
0.116411 324.156091
0.115416 324.109866
0.115416 324.109866
0.109183 322.465722
0.109183 322.465722
0.109183 322.465722
0.109183 322.465722
0.109183 322.465722
K2
0.046100 249.887995
0.046100 249.887995
0.046773 250.743071
0.044101 249.371198
0.041698 248.361440
0.038822 246.739090
0.037291 245.707618
0.036114 244.749441
0.033990 242.872433
0.032394 241.368955
0.031229 240.015456
0.030208 239.218967
0.029183 238.889257
0.028140 238.850680
0.027078 238.883797
0.026042 238.927886
0.025084 239.239789
0.023420 240.184144
0.022221 241.110965
0.021143 242.048054
0.019891 242.977370
0.018521 243.789996
0.017532 244.389491
0.016571 244.903507
0.015721 245.265525
0.015161 246.051826
0.014606 247.218921
0.013965 248.380769
0.013275 249.732830
0.012613 251.152505
0.011897 252.573253
0.011102 254.155013
0.010298 256.089317
0.009507 258.486520
0.008761 261.398032
0.008076 264.845389
0.007446 269.018934
0.006649 276.629960
0.006017 286.925119
0.005601 302.504191
0.005628 318.088855
0.006041 330.961208
0.006791 342.242592
0.007705 350.431307
0.008603 355.879505
0.009529 0.030813
0.010667 3.870291
0.011797 6.798624
0.012936 9.121599
0.014033 10.916316
0.015053 12.276921
0.016044 13.403432
0.016971 14.327958
0.017863 15.119604
0.018790 15.816793
0.019656 16.349422
0.020425 16.766755
0.021155 17.080247
0.021752 17.270029
0.022324 17.365243
0.022882 17.379610
0.023382 17.270304
0.023891 17.016617
0.024424 16.787911
0.024716 16.524463
0.025111 16.156117
0.025324 15.950249
0.025540 15.692929
0.025754 15.413473
0.025861 15.264072
0.025970 15.107885
0.026087 14.936023
0.026204 14.759141
0.026323 14.570752
0.026441 14.372959
0.026562 14.164924
0.026684 13.946816
0.026803 13.720593
0.026924 13.476399
0.027046 13.213954
0.027167 12.940813
0.027285 12.656437
0.027402 12.360155
0.027462 12.197536
0.027533 11.999614
0.027604 11.800684
0.027676 11.600327
0.027764 11.605361
0.027875 11.742667
0.028073 11.989236
0.028931 13.040316
0.029671 14.004300
0.030837 18.369331
0.032217 22.528632
0.033337 24.447145
0.033931 24.963423
0.034609 25.500697
0.035140 25.662170
0.035705 25.828781
0.036239 25.872882
0.036743 25.792240
0.037030 25.724176
0.037208 25.478263
0.037385 25.234645
0.037564 24.993366
0.037614 24.705120
0.037616 24.398483
0.037620 24.091923
0.037486 23.740417
0.037110 23.320874
0.036745 22.904168
0.036402 22.501723
0.036156 22.684610
0.036156 22.684610
0.034348 22.797893
0.034348 22.797893
0.034348 22.797893
0.034348 22.797893
0.034348 22.797893
K1
0.100526 245.986905
0.100526 245.986905
0.100865 246.427795
0.099149 244.789630
0.097517 243.786486
0.095539 242.620715
0.094487 241.974501
0.093687 241.457415
0.092215 240.525317
0.091041 239.867844
0.090197 239.276988
0.089506 238.850808
0.088900 238.507014
0.088371 238.224177
0.087906 237.978729
0.087476 237.741986
0.087036 237.517632
0.086096 237.053583
0.085203 236.638565
0.084250 236.237134
0.083313 235.921640
0.082305 235.628132
0.081351 235.249039
0.080372 234.800855
0.079396 234.387159
0.078675 233.988918
0.077925 233.439130
0.077162 232.822603
0.076347 232.161860
0.075458 231.481812
0.074491 230.754205
0.073527 230.014029
0.072572 229.282193
0.071623 228.562721
0.070679 227.826135
0.069757 227.081093
0.068838 226.321585
0.067568 225.181586
0.066204 223.872676
0.064620 222.119830
0.063281 220.406039
0.062015 218.650976
0.060639 216.571298
0.059306 214.423006
0.058159 212.416450
0.057065 210.350121
0.055833 207.776793
0.054740 205.121222
0.053783 202.317680
0.053032 199.463453
0.052519 196.690146
0.052217 193.905073
0.052130 191.235459
0.052244 188.646431
0.052568 185.878646
0.053059 183.205541
0.053633 180.841644
0.054301 178.559668
0.054937 176.648378
0.055578 174.835395
0.056299 173.034987
0.057048 171.372325
0.057897 169.664875
0.058706 168.059577
0.059576 166.883580
0.060349 165.834308
0.060716 165.371350
0.061093 164.977927
0.061469 164.640135
0.061668 164.500975
0.061877 164.378143
0.062103 164.257873
0.062332 164.143232
0.062577 164.060979
0.062833 163.968347
0.063106 163.889549
0.063396 163.832484
0.063698 163.772570
0.064025 163.707182
0.064370 163.637524
0.064725 163.559809
0.065096 163.463906
0.065463 163.322806
0.065644 163.225175
0.065847 163.088103
0.066058 162.903579
0.066277 162.674304
0.066320 162.427645
0.066255 162.133531
0.065949 161.744179
0.063596 160.752198
0.061326 159.721026
0.050671 153.660148
0.040559 144.151912
0.035606 133.917207
0.034252 127.744871
0.033198 120.214415
0.032484 113.930979
0.032171 107.025960
0.031787 99.384467
0.031469 90.739494
0.031521 85.614193
0.030944 80.790913
0.030594 75.820296
0.030478 70.774103
0.029797 65.026663
0.029140 58.732332
0.028848 52.230670
0.027987 45.848367
0.025795 39.431812
0.024026 32.150181
0.022758 24.328114
0.021230 28.346091
0.021230 28.346091
0.025523 53.441593
0.025523 53.441593
0.025523 53.441593
0.025523 53.441593
0.025523 53.441593
O1
0.083437 235.052615
0.083437 235.052615
0.083664 235.469339
0.082282 233.752043
0.081034 232.731008
0.079608 231.573915
0.078864 230.938924
0.078292 230.468945
0.077234 229.631022
0.076370 229.061003
0.075705 228.569289
0.075130 228.229616
0.074592 227.976282
0.074080 227.787029
0.073581 227.637013
0.073098 227.505769
0.072622 227.401012
0.071685 227.186382
0.070915 226.989694
0.070165 226.793288
0.069404 226.649898
0.068617 226.496827
0.068000 226.229224
0.067433 225.866763
0.066905 225.467072
0.066505 225.081463
0.066057 224.646439
0.065536 224.186357
0.064967 223.774132
0.064397 223.366089
0.063822 222.923261
0.063218 222.457077
0.062593 222.023617
0.061977 221.623966
0.061383 221.230150
0.060811 220.838089
0.060252 220.439480
0.059444 219.844987
0.058567 219.150746
0.057482 218.211143
0.056515 217.270346
0.055571 216.283607
0.054525 215.094012
0.053504 213.838192
0.052605 212.654455
0.051738 211.424911
0.050742 209.870639
0.049809 208.253355
0.048925 206.524533
0.048129 204.738880
0.047450 202.958950
0.046853 201.137855
0.046349 199.330168
0.045923 197.498904
0.045553 195.498052
0.045281 193.506873
0.045119 191.711319
0.045043 189.966933
0.045046 188.471096
0.045102 187.044331
0.045233 185.597201
0.045435 184.240073
0.045745 182.829940
0.046082 181.449906
0.046597 180.432932
0.047103 179.457471
0.047387 178.996831
0.047703 178.568247
0.048052 178.164220
0.048241 177.973391
0.048437 177.782305
0.048655 177.578447
0.048884 177.373722
0.049127 177.168449
0.049379 176.959014
0.049640 176.739675
0.049907 176.508044
0.050185 176.266529
0.050464 176.000823
0.050747 175.710600
0.051021 175.399676
0.051286 175.061630
0.051504 174.699500
0.051600 174.493427
0.051694 174.235730
0.051771 173.941264
0.051833 173.611210
0.051737 173.295451
0.051525 172.941419
0.051062 172.585839
0.048579 172.555347
0.046213 172.590700
0.036030 174.948268
0.025611 179.353126
0.018538 181.626994
0.015107 181.244288
0.011200 180.710112
0.008054 182.220571
0.004720 186.038426
0.001657 225.266526
0.003511 317.061197
0.005709 326.185343
0.007849 325.179877
0.009991 324.605294
0.012133 324.233649
0.014474 321.898013
0.016917 319.556182
0.019381 317.807723
0.021599 315.066637
0.023331 310.561105
0.025138 306.793090
0.026936 303.701774
0.025833 302.853207
0.025833 302.853207
0.025431 316.221819
0.025431 316.221819
0.025431 316.221819
0.025431 316.221819
0.025431 316.221819
P1
0.032398 246.134737
0.032398 246.134737
0.032471 246.595585
0.032111 244.717995
0.031689 243.605494
0.031156 242.348530
0.030874 241.659384
0.030644 241.132588
0.030218 240.194110
0.029864 239.556117
0.029600 238.990720
0.029379 238.598441
0.029183 238.296644
0.029009 238.060270
0.028854 237.862108
0.028708 237.674333
0.028563 237.509322
0.028258 237.165628
0.027983 236.848971
0.027699 236.529781
0.027428 236.265937
0.027151 235.998330
0.026901 235.612224
0.026655 235.099370
0.026418 234.514160
0.026222 233.891957
0.025999 233.172385
0.025754 232.447762
0.025496 231.781908
0.025234 231.123474
0.024971 230.409411
0.024702 229.658975
0.024432 228.940136
0.024163 228.236246
0.023894 227.516185
0.023628 226.791794
0.023361 226.061719
0.022969 224.963829
0.022528 223.705948
0.021967 222.024871
0.021465 220.377576
0.020975 218.691304
0.020444 216.696708
0.019944 214.624596
0.019521 212.685129
0.019132 210.686343
0.018707 208.202908
0.018336 205.651106
0.018012 202.973203
0.017749 200.264397
0.017551 197.614217
0.017412 194.983006
0.017332 192.464570
0.017306 190.005067
0.017331 187.418242
0.017408 184.939856
0.017521 182.779151
0.017671 180.745735
0.017833 179.053151
0.018019 177.478558
0.018247 175.922953
0.018501 174.500157
0.018815 173.069451
0.019139 171.746964
0.019474 170.812906
0.019803 169.965068
0.019972 169.585698
0.020146 169.251957
0.020323 168.953390
0.020413 168.823237
0.020505 168.700750
0.020604 168.577587
0.020704 168.461721
0.020808 168.357519
0.020912 168.259738
0.021019 168.165779
0.021128 168.075022
0.021238 167.991661
0.021353 167.902869
0.021471 167.811415
0.021587 167.716524
0.021705 167.610884
0.021813 167.482536
0.021866 167.405925
0.021926 167.307085
0.021981 167.194398
0.022031 167.068381
0.022026 166.940968
0.021985 166.793848
0.021871 166.608334
0.021167 166.209732
0.020472 165.771400
0.016919 162.408594
0.013337 157.062678
0.011332 150.480701
0.010618 146.008003
0.009893 140.170039
0.009369 134.859628
0.008911 128.580220
0.008441 121.117893
0.008008 112.065610
0.007839 106.372949
0.007628 101.250176
0.007481 95.880677
0.007402 90.347469
0.007308 83.896906
0.007282 77.009129
0.007361 70.171923
0.007487 63.436687
0.007600 57.023663
0.007799 51.031718
0.008062 45.682359
0.007919 44.059072
0.007919 44.059072
0.010271 23.739049
0.010271 23.739049
0.010271 23.739049
0.010271 23.739049
0.010271 23.739049
Q1
0.015999 213.988922
0.015999 213.988922
0.016025 214.368652
0.015856 212.657644
0.015666 211.614883
0.015447 210.451498
0.015334 209.820067
0.015243 209.352087
0.015070 208.513529
0.014917 207.925612
0.014795 207.412557
0.014681 207.054270
0.014568 206.792660
0.014454 206.604310
0.014339 206.462811
0.014226 206.358370
0.014115 206.288353
0.013908 206.166184
0.013754 206.045679
0.013617 205.914378
0.013475 205.835246
0.013334 205.733959
0.013245 205.507789
0.013180 205.200131
0.013140 204.874501
0.013136 204.606520
0.013128 204.273323
0.013099 203.862859
0.013045 203.480010
0.012989 203.103552
0.012935 202.678176
0.012873 202.217982
0.012799 201.779462
0.012722 201.362834
0.012648 200.941579
0.012573 200.517749
0.012496 200.092556
0.012380 199.461772
0.012250 198.748054
0.012083 197.815684
0.011929 196.925327
0.011778 196.017490
0.011608 194.956174
0.011441 193.867090
0.011292 192.859231
0.011148 191.829828
0.010979 190.559518
0.010818 189.258438
0.010659 187.888317
0.010511 186.484810
0.010376 185.092503
0.010251 183.668971
0.010141 182.263293
0.010042 180.831772
0.009948 179.251291
0.009868 177.646151
0.009809 176.156462
0.009765 174.655736
0.009738 173.317610
0.009722 171.983855
0.009722 170.566939
0.009737 169.161426
0.009774 167.604879
0.009816 165.974393
0.009911 164.672577
0.009994 163.358960
0.010040 162.708548
0.010091 162.081662
0.010145 161.477026
0.010174 161.180498
0.010204 160.889195
0.010236 160.583254
0.010270 160.279662
0.010304 159.980881
0.010339 159.685670
0.010374 159.391677
0.010410 159.098676
0.010445 158.812223
0.010480 158.523544
0.010515 158.233631
0.010548 157.949087
0.010580 157.663039
0.010606 157.384160
0.010617 157.234784
0.010629 157.056239
0.010639 156.872786
0.010646 156.684118
0.010623 156.540683
0.010577 156.405068
0.010501 156.352662
0.010209 157.180719
0.009934 158.070169
0.008821 164.072532
0.007800 171.993044
0.007151 177.025791
0.006830 178.929011
0.006476 181.332272
0.006221 183.528644
0.005961 186.068796
0.005703 189.340877
0.005457 193.507052
0.005331 196.139819
0.005270 198.631438
0.005220 201.176557
0.005180 203.765842
0.005166 206.937596
0.005176 210.319275
0.005203 213.676451
0.005262 216.984948
0.005356 220.022310
0.005462 222.871092
0.005574 225.464240
0.005652 225.714967
0.005652 225.714967
0.006494 237.249433
0.006494 237.249433
0.006494 237.249433
0.006494 237.249433
0.006494 237.249433
100.0                     ! ANGINN : INNER ANGLE THRESHOLD
-1 ! NFFR
-3 0. 100.  900     ! NOUTE,TOUTSE,TOUTFE,NSPOOLE:ELEV STATION OUTPUT INFO (UNIT  61)
  50                  ! TOTAL NUMBER OF ELEVATION RECORDING STATIONS     
 -66.9850   44.9033   ! Eastport Passamaquoddy Bay, ME  	(NOS  Station ID 8410140)	 
 -67.2966   44.6416   ! Cutler Naval Base, ME			(NOS  Station ID 8411250)	 
 -68.2000   44.4000   ! Bar Harbor, ME  			(NOS  Station ID 8413320)	 
 -70.2466   43.6566   ! Portland, ME				(NOS  Station ID 8418150)	 
 -71.0516   42.3550   ! Boston, MA				(NOS  Station ID 8443970)	 
 -70.6700   41.5133   ! Woods Hole, MA  			(NOS  Station ID 8447930)	 
 -70.0950   41.2866   ! Nantucket Island, MA			(NOS  Station ID 8449130)	 
 -71.6133   41.1583   ! Block Island, RI			(NOS  Station ID 8459681)	 
 -71.9666   41.0500   ! Montauk, NY				(NOS  Station ID 8510560)	 
 -74.0116   40.4683   ! Sandy Hook, NJ  			(NOS  Station ID 8531680)	 
 -74.4183   39.3516   ! Atlantic City, NJ			(NOS  Station ID 8534720)	 
 -74.9600   38.9683   ! Cape May Ferry Terminal, NJ		(NOS  Station ID 8536110)	 
 -75.1200   38.7816   ! Lewes, DE				(NOS  Station ID 8557380)	 
 -75.9883   37.1666   ! Kiptopeke, VA				(NOS  Station ID 8632200)	 
 -76.2900   37.6150   ! Windmill Pt., VA			(NOS  Station ID 8636580)	 
 -76.5000   37.2466   ! Gloucester Pt., VA			(NOS  Station ID 8637624)	 
 -76.1133   36.9666   ! Chesapeake Bay Bridge Tunnel, VA	(NOS  Station ID 8638863)	 
 -75.7466   36.1833   ! Duck Pier, NC				(NOS  Station ID 8651370)	 
 -75.5483   35.7950   ! Oregon Inlet Marina, NC 		(NOS  Station ID 8652587)  
 -75.6350   35.2233   ! Cape Hatteras Fishing Pier, NC  	(NOS  Station ID 8654400)	 
 -76.6700   34.7200   ! Beaufort, NC				(NOS  Station ID 8656483)	 
 -77.9533   34.2267   ! Wilmington, NC  			(NOS  Station ID 8658120)  
 -77.7867   34.2133   ! Wrightsville Beach, NC  		(NOS  Station ID 8658163)  
 -78.0183   33.9150   ! Southport, NC				(NOS  Station ID 8659084)  
 -78.5067   33.8650   ! Sunset Beach, NC			(NOS  Station ID 8659897)  
 -77.0619   35.5425   ! Pamlico River at Washington, NC 	(USGS Station ID 02084472)
 -76.7231   35.9152   ! Roanoke River at NC45 near Westover, NC (USGS Station ID 0208114150) 
 -78.9183   33.6550   ! Springmaid Pier, SC			(NOS  Station ID 8661070)      
 -79.9250   32.7816   ! Charleston, SC  			(NOS  Station ID 8665530)      
 -80.9016   32.0333   ! Fort Pulaski, GA			(NOS  Station ID 8670870)      
 -81.4300   30.3966   ! Mayport (Bar Pilots Dock), FL		(NOS  Station ID 8720218)      
 -81.2633   29.8566   ! St. Augustine Beach, FL 		(NOS  Station ID 8720587)      
 -80.5933   28.4150   ! Trident Pier, FL			(NOS  Station ID 8721604)      
 -80.1616   25.7316   ! Virginia Key, FL			(NOS  Station ID 8723214)      
 -81.1050   24.7116   ! Vaca Key, FL				(NOS  Station ID 8723970)      
 -81.8083   24.5533   ! Key West, FL				(NOS  Station ID 8724580)      
 -81.8066   26.1300   ! Naples, FL				(NOS  Station ID 8725110)      
 -82.8316   27.9766   ! Clearwater Beach, FL			(NOS  Station ID 8726724)      
 -83.0316   29.1350   ! Cedar Key, FL				(NOS  Station ID 8727520)      
 -84.9816   29.7266   ! Apalachicola, FL			(NOS  Station ID 8728690)      
 -85.8800   30.2133   ! Panama City Beach, FL			(NOS  Station ID 8729210)      
 -87.2116   30.4033   ! Pensacola, FL				(NOS  Station ID 8729840)      
 -89.3666   30.2816   ! Waveland, MS				(NOS  Station ID 8747766)      
 -89.1400   28.9900   ! South Pass, LA  			(NOS  Station ID 8760551)      
 -89.9566   29.2633   ! Grand Isle, LA  			(NOS  Station ID 8761724)      
 -93.8700   29.7316   ! Sabine Pass North, TX			(NOS  Station ID 8770570)      
 -94.7883   29.2850   ! Galveston Pleasure Pier, TX		(NOS  Station ID 8771510)      
 -95.3083   28.9483   ! Freeport, TX				(NOS  Station ID 8772440)      
 -97.2166   27.5800   ! Corpus Christi, TX			(NOS  Station ID 8775870)      
 -97.2150   26.0600   ! Port Isabel, Laguna Madre, TX		(NOS  Station ID 8779770)      
 0  0.  100.  900           ! NOUTV,TOUTSV,TOUTFV,NSPOOLV:VEL STATION OUTPUT INFO (UNIT 62)
 0                         ! TOTAL NUMBER OF VELOCITY RECORDING STATIONS
 0  0.  100.  900      ! NOUTM,TOUTSM,TOUTFM,NSPOOLM: MET STATION OUTPUT INFO (UNIT  71,72)
 0                    ! NSTAM - NUMBER OF MET RECORDING STATIONS
-3  0.  100.  900           ! NOUTGE,TOUTSGE,TOUTFGE,NSPOOLGE : GLOBAL ELEV OUTPUT (UNIT  63)
-3  0.  100.  900           ! NOUTGV,TOUTSGV,TOUTFGV,NSPOOLGV : GLOBAL VEL  OUTPUT (UNIT  64)
-3  0.  100.  900     ! NOUTGM,TOUTSGM,TOUTFGM,NSPOOLGM : GLOBAL MET  OUTPUT INFO (UNIT  73,74)    
 0                        ! NHARF - NUMBER OF FREQENCIES IN HARMONIC ANALYSIS
 20.0  90.0   900  0.0    ! THAS, THAF, NHAINC,FMV
 0 0 0 0                  ! NHASE,NHASV,NHAGE,NHAGV
 0  86400                 ! NHSTAR,NHSINC
 -1  0  1e-10  25         ! ITITER,ISLDIA,CONVCR,ITMAX
Argonne_RRAP
RENCI
padcirc	
Irene_spinup
Irene_spinup
Irene_spinup
hatteras
unknown
B.Blanton
2011-08-11 00:00:00
